Q24_Steering_Wheel
*SPICE Netlist generated by Advanced Sim server on 2023-09-16 1:24:03 PM
.options MixedSimGenerated

.SAVE allV
.SAVE allI
.SAVE allP

.PLOT {V(BUTTON1)} =PLOT(1) =AXIS(1)

*Selected Circuit Analyses:
.TRAN 20.00n 5.000u 0 20.00n
.OP

.END